source 'https://rubygems.org'

# Specify your gem's dependencies in rails-dynamic-rendering.gemspec
gemspec

group :development, :test do
  gem 'guard-livereload', require: false
  gem 'guard-rspec'
  gem 'pry-byebug'
  gem 'rb-fsevent', require: false
  gem 'rb-readline'
  gem 'rails', '>= 6.0.0'
  gem 'rspec'
  gem 'rubocop-rspec'
  gem 'rubocop'
  gem 'shoulda-matchers', require: false
  gem 'sqlite3'
  gem 'stackprof'
end

group :test do
  gem 'ffaker'
  gem 'simplecov'
end
